/*--------------------------------*- C++ -*----------------------------------*\
| =========                 |                                                 |
| \\      /  F ield         | foam-extend: Open Source CFD                    |
|  \\    /   O peration     | Version:     3.2                                |
|   \\  /    A nd           | Web:         http://www.foam-extend.org         |
|    \\/     M anipulation  | For copyright notice see file Copyright         |
\*---------------------------------------------------------------------------*/
FoamFile
{
    version     2.0;
    format      ascii;
    class       dictionary;
    object      fvSolution;
}
// * * * * * * * * * * * * * * * * * * * * * * * * * * * * * * * * * * * * * //

solvers
{
    p
    {
         solver            BiCGStab;
         preconditioner    Cholesky;

         minIter           1;
         maxIter           200;
         tolerance         1e-7;
         relTol            0.001;
    }

    U
    {
        solver           BiCGStab;
        preconditioner   DILU;
        tolerance        1e-08;
        relTol           0.01;
        minIter          1;
    }

    k
    {
        solver           BiCGStab;
        preconditioner   DILU; 
        tolerance        1e-08;
        relTol           0.1;
        minIter          1;
    }

	omega
    {
        solver           BiCGStab;
        preconditioner   DILU; 
        tolerance        1e-08;
        relTol           0.1;
        minIter          1;
    }
}

SIMPLE
{
    // Non orthogonal corrector for explicit overset correction
    nNonOrthogonalCorrectors 1;
}

relaxationFactors
{
    equations
    {
        U               0.7;
        k               0.5;
        epsilon         0.5;
    }
    fields
    {
        p               0.3;
    }
}

// ************************************************************************* //
